FoamFile {
    version 2.0;
    format ascii;
    class dictionary;
    object fvOptions;
}
MRF1 {
    type MRFSource;
    active on;
    selectionMode cellZone;
    cellZone region2;
    MRFSourceCoeffs {
        origin (0.0 0.0 0.0);
        axis (1.0 0.0 0.0);
        omega constant 350.0;
    }
}
